
     RDKit          3D

 15 14  0  0  0  0  0  0  0  0999 V2000
    0.2764    1.3285    0.1208 C   0  0  0  0  0  0  0  0  0  0  0  0
   -0.1174   -0.1248    0.1843 C   0  0  0  0  0  0  0  0  0  0  0  0
    0.7831   -1.0503    0.5662 O   0  0  0  0  0  0  0  0  0  0  0  0
   -1.3732   -0.4989   -0.1417 C   0  0  0  0  0  0  0  0  0  0  0  0
   -1.6969   -1.8636   -0.2404 C   0  0  0  0  0  0  0  0  0  0  0  0
   -0.8263   -2.7038   -0.1313 O   0  0  0  0  0  0  0  0  0  0  0  0
   -3.1238   -2.2840   -0.4818 C   0  0  0  0  0  0  0  0  0  0  0  0
    0.5074   -1.9677    0.6978 H   0  0  0  0  0  0  0  0  0  0  0  0
    1.3199    1.4354    0.4170 H   0  0  0  0  0  0  0  0  0  0  0  0
    0.1483    1.6954   -0.8975 H   0  0  0  0  0  0  0  0  0  0  0  0
   -0.3543    1.9056    0.7971 H   0  0  0  0  0  0  0  0  0  0  0  0
   -2.1289    0.2501   -0.3265 H   0  0  0  0  0  0  0  0  0  0  0  0
   -3.4725   -1.8617   -1.4242 H   0  0  0  0  0  0  0  0  0  0  0  0
   -3.1792   -3.3716   -0.5283 H   0  0  0  0  0  0  0  0  0  0  0  0
   -3.7517   -1.9227    0.3327 H   0  0  0  0  0  0  0  0  0  0  0  0
  1  2  1  0
  2  3  1  0
  2  4  2  3
  3  8  1  0
  4  5  1  0
  5  6  2  0
  5  7  1  0
  1  9  1  0
  1 10  1  0
  1 11  1  0
  4 12  1  0
  7 13  1  0
  7 14  1  0
  7 15  1  0
M  END

