
     RDKit          3D

  9  8  0  0  0  0  0  0  0  0999 V2000
   -0.0160    1.3266    0.0093 C   0  0  0  0  0  0  0  0  0  0  0  0
    1.2465    2.0786    0.0013 C   0  0  0  0  0  0  0  0  0  0  0  0
    1.2282    3.4265    0.0087 O   0  0  0  0  0  0  0  0  0  0  0  0
    2.3071    1.4853   -0.0120 O   0  0  0  0  0  0  0  0  0  0  0  0
    2.0590    3.9213    0.0035 H   0  0  0  0  0  0  0  0  0  0  0  0
    0.0021   -0.0041    0.0020 C   0  0  0  0  0  0  0  0  0  0  0  0
   -0.9584    1.8538    0.0257 H   0  0  0  0  0  0  0  0  0  0  0  0
   -0.9258   -0.5567    0.0079 H   0  0  0  0  0  0  0  0  0  0  0  0
    0.9446   -0.5313   -0.0098 H   0  0  0  0  0  0  0  0  0  0  0  0
  1  6  2  3
  1  2  1  0
  2  3  1  0
  2  4  2  0
  3  5  1  0
  1  7  1  0
  6  8  1  0
  6  9  1  0
M  END

