
     RDKit          3D

 23 22  0  0  0  0  0  0  0  0999 V2000
   -0.0184    1.5028    0.0103 C   0  0  0  0  0  0  0  0  0  0  0  0
    1.0197    2.1211    0.0037 O   0  0  0  0  0  0  0  0  0  0  0  0
   -1.1898    2.1580    0.0194 O   0  0  0  0  0  0  0  0  0  0  0  0
   -1.2029    3.1249    0.0247 H   0  0  0  0  0  0  0  0  0  0  0  0
    0.0021   -0.0041    0.0020 C   0  0  0  0  0  0  0  0  0  0  0  0
    1.4513   -0.4944   -0.0145 C   0  0  0  0  0  0  0  0  0  0  0  0
    1.4720   -2.0242   -0.0229 C   0  0  0  0  0  0  0  0  0  0  0  0
    2.9213   -2.5145   -0.0393 C   0  0  0  0  0  0  0  0  0  0  0  0
    2.9420   -4.0444   -0.0478 C   0  0  0  0  0  0  0  0  0  0  0  0
    4.3694   -4.5273   -0.0640 C   0  0  0  0  0  0  0  0  0  0  0  0
    5.2770   -3.7297   -0.0684 O   0  0  0  0  0  0  0  0  0  0  0  0
    4.6326   -5.8435   -0.0736 O   0  0  0  0  0  0  0  0  0  0  0  0
    5.5485   -6.1534   -0.0840 H   0  0  0  0  0  0  0  0  0  0  0  0
   -0.4983   -0.3791    0.8948 H   0  0  0  0  0  0  0  0  0  0  0  0
   -0.5153   -0.3696   -0.8850 H   0  0  0  0  0  0  0  0  0  0  0  0
    1.9516   -0.1193   -0.9073 H   0  0  0  0  0  0  0  0  0  0  0  0
    1.9686   -0.1289    0.8726 H   0  0  0  0  0  0  0  0  0  0  0  0
    0.9717   -2.3993    0.8699 H   0  0  0  0  0  0  0  0  0  0  0  0
    0.9547   -2.3897   -0.9099 H   0  0  0  0  0  0  0  0  0  0  0  0
    3.4216   -2.1395   -0.9321 H   0  0  0  0  0  0  0  0  0  0  0  0
    3.4386   -2.1490    0.8477 H   0  0  0  0  0  0  0  0  0  0  0  0
    2.4417   -4.4194    0.8450 H   0  0  0  0  0  0  0  0  0  0  0  0
    2.4247   -4.4099   -0.9348 H   0  0  0  0  0  0  0  0  0  0  0  0
  1  5  1  0
  1  2  2  0
  1  3  1  0
  3  4  1  0
  5  6  1  0
  6  7  1  0
  7  8  1  0
  8  9  1  0
  9 10  1  0
 10 11  2  0
 10 12  1  0
 12 13  1  0
  5 14  1  0
  5 15  1  0
  6 16  1  0
  6 17  1  0
  7 18  1  0
  7 19  1  0
  8 20  1  0
  8 21  1  0
  9 22  1  0
  9 23  1  0
M  END

