
     RDKit          3D

  9  9  0  0  0  0  0  0  0  0999 V2000
   -0.0162    1.3451    0.0094 C   0  0  0  0  0  0  0  0  0  0  0  0
    0.0021   -0.0041    0.0020 O   0  0  0  0  0  0  0  0  0  0  0  0
   -1.2640   -0.4706    0.0111 C   0  0  0  0  0  0  0  0  0  0  0  0
   -1.5900   -1.6397    0.0082 O   0  0  0  0  0  0  0  0  0  0  0  0
    0.9582    2.0685    0.0040 O   0  0  0  0  0  0  0  0  0  0  0  0
   -1.4248    1.7920    0.0188 C   0  0  0  0  0  0  0  0  0  0  0  0
   -2.1861    0.6841    0.0258 C   0  0  0  0  0  0  0  0  0  0  0  0
   -1.7755    2.8135    0.0261 H   0  0  0  0  0  0  0  0  0  0  0  0
   -3.2653    0.6453    0.0355 H   0  0  0  0  0  0  0  0  0  0  0  0
  1  2  1  0
  1  5  2  0
  1  6  1  0
  2  3  1  0
  3  4  2  0
  3  7  1  0
  6  7  2  0
  6  8  1  0
  7  9  1  0
M  END

